OPA1_HD_no_solv_partial_op
                    3D
 Schrodinger Suite 2024-1.
  0  0  0     0  0            999 V3000
M  V30 BEGIN CTAB
M  V30 COUNTS 47 50 0 0 0
M  V30 BEGIN ATOM
M  V30 1 C  -0.6573 -0.1768 -0.3311 0 CFG=1
M  V30 2 C  -1.1085 0.0026 -1.7912 0 CFG=2
M  V30 3 O  -1.1363 1.4241 -1.8020 0
M  V30 4 P  -1.0093 1.6488 -0.0122 0
M  V30 5 C  -2.7643 2.1618 0.1065 0
M  V30 6 C  -0.5993 1.5949 1.8704 0
M  V30 7 C  0.1185 3.0915 -0.2844 0
M  V30 8 C  -1.4261 2.0218 2.9108 0
M  V30 9 C  -1.0126 1.9622 4.2403 0
M  V30 10 C  0.2459 1.4755 4.5624 0
M  V30 11 C  1.0935 1.0594 3.5406 0
M  V30 12 C  0.6732 1.1243 2.2199 0
M  V30 13 C  0.0751 4.1902 0.5782 0
M  V30 14 C  0.9067 5.2822 0.3757 0
M  V30 15 C  1.8261 5.2755 -0.6684 0
M  V30 16 C  1.8887 4.1814 -1.5212 0
M  V30 17 C  1.0261 3.1047 -1.3437 0
M  V30 18 C  -3.7077 1.4054 0.8018 0
M  V30 19 C  -5.0486 1.7723 0.7978 0
M  V30 20 C  -5.4578 2.9115 0.1163 0
M  V30 21 C  -4.5208 3.6750 -0.5723 0
M  V30 22 C  -3.1856 3.2955 -0.5892 0
M  V30 23 C  -1.2488 -1.2657 0.5477 0
M  V30 24 C  -2.4495 -0.6085 -2.1723 0
M  V30 25 H  0.4329 -0.2540 -0.3095 0
M  V30 26 H  -0.3450 -0.3555 -2.4945 0
M  V30 27 H  -2.4076 2.4209 2.6963 0
M  V30 28 H  -1.6801 2.3024 5.0230 0
M  V30 29 H  0.5680 1.4270 5.5949 0
M  V30 30 H  2.0849 0.6899 3.7730 0
M  V30 31 H  1.3669 0.8173 1.4452 0
M  V30 32 H  -0.6108 4.1970 1.4142 0
M  V30 33 H  0.8449 6.1340 1.0413 0
M  V30 34 H  2.4871 6.1205 -0.8164 0
M  V30 35 H  2.5988 4.1689 -2.3387 0
M  V30 36 H  1.0396 2.2796 -2.0397 0
M  V30 37 H  -3.4010 0.5306 1.3582 0
M  V30 38 H  -5.7706 1.1698 1.3347 0
M  V30 39 H  -6.5007 3.2024 0.1195 0
M  V30 40 H  -4.8322 4.5623 -1.1093 0
M  V30 41 H  -2.4689 3.8733 -1.1571 0
M  V30 42 H  -0.9208 -2.2474 0.1963 0
M  V30 43 H  -0.9215 -1.1562 1.5815 0
M  V30 44 H  -2.3378 -1.2604 0.5308 0
M  V30 45 H  -2.4084 -1.7004 -2.1482 0
M  V30 46 H  -3.2426 -0.2709 -1.5049 0
M  V30 47 H  -2.7093 -0.2949 -3.1841 0
M  V30 END ATOM
M  V30 BEGIN BOND
M  V30 1 1 1 25
M  V30 2 1 1 23
M  V30 3 1 1 2
M  V30 4 1 1 4
M  V30 5 1 2 26
M  V30 6 1 2 3
M  V30 7 1 2 24
M  V30 8 1 3 4
M  V30 9 1 4 5
M  V30 10 1 4 7
M  V30 11 1 4 6
M  V30 12 2 5 18
M  V30 13 1 5 22
M  V30 14 2 6 8
M  V30 15 1 6 12
M  V30 16 2 7 17
M  V30 17 1 7 13
M  V30 18 1 8 27
M  V30 19 1 8 9
M  V30 20 1 9 28
M  V30 21 2 9 10
M  V30 22 1 10 29
M  V30 23 1 10 11
M  V30 24 1 11 30
M  V30 25 2 11 12
M  V30 26 1 12 31
M  V30 27 1 13 32
M  V30 28 2 13 14
M  V30 29 1 14 33
M  V30 30 1 14 15
M  V30 31 1 15 34
M  V30 32 2 15 16
M  V30 33 1 16 35
M  V30 34 1 16 17
M  V30 35 1 17 36
M  V30 36 1 18 37
M  V30 37 1 18 19
M  V30 38 1 19 38
M  V30 39 2 19 20
M  V30 40 1 20 39
M  V30 41 1 20 21
M  V30 42 1 21 40
M  V30 43 2 21 22
M  V30 44 1 22 41
M  V30 45 1 23 44
M  V30 46 1 23 43
M  V30 47 1 23 42
M  V30 48 1 24 46
M  V30 49 1 24 47
M  V30 50 1 24 45
M  V30 END BOND
M  V30 END CTAB
M  END
> <i_j_Geometry_convergence_category>
1

> <i_j_Num_Negative_Frequencies>
0

> <i_j_Number_of_canonical_orbitals>
694

> <i_m_Molecular_charge>
0

> <i_m_Spin_multiplicity>
1

> <r_j_2nd_Lowest_Frequency_(cm-1)>
0

> <r_j_Final_Energy>
-1269.14

> <r_j_Gas_Phase_Energy>
-1269.14

> <r_j_HOMO>
-0.233783

> <r_j_Highest_Frequency_(cm-1)>
0

> <r_j_LUMO>
-0.0357814

> <r_j_Lowest_Frequency_(cm-1)>
0

> <s_j_Jaguar_input_file>
/central/home/labounad/Sandbox/OPA_Test/OPA1_HD_no_solv.in

> <s_j_Jaguar_log_file>
/central/home/labounad/Sandbox/OPA_Test/OPA1_HD_no_solv.log

> <s_j_Jaguar_mae_file>
/central/home/labounad/Sandbox/OPA_Test/OPA1_HD_no_solv.mae

> <s_j_Jaguar_output_file>
/central/home/labounad/Sandbox/OPA_Test/OPA1_HD_no_solv.out

> <s_j_Jaguar_restart_input_file>
/central/home/labounad/Sandbox/OPA_Test/OPA1_HD_no_solv.01.in

> <s_j_Jaguar_restart_mae_file>
/central/home/labounad/Sandbox/OPA_Test/OPA1_HD_no_solv.01.mae

> <s_j_QM_Basis>
def2-tzvp(-f)

> <s_j_QM_Method>
DFT(b3lyp-d3)

> <s_j_Task>
Optimization

> <s_m_entry_id>
12

> <s_m_entry_name>
OPA1_HD_no_solv.01

$$$$
en-OPA1_HD_no_solv
                    3D
 Schrodinger Suite 2024-1.
  0  0  0     0  0            999 V3000
M  V30 BEGIN CTAB
M  V30 COUNTS 47 50 0 0 0
M  V30 BEGIN ATOM
M  V30 1 C  0.6573 -0.1768 -0.3311 0 CFG=2
M  V30 2 C  1.1085 0.0026 -1.7912 0 CFG=1
M  V30 3 O  1.1363 1.4241 -1.8020 0
M  V30 4 P  1.0093 1.6488 -0.0122 0
M  V30 5 C  2.7643 2.1618 0.1065 0
M  V30 6 C  0.5993 1.5949 1.8704 0
M  V30 7 C  -0.1185 3.0915 -0.2844 0
M  V30 8 C  1.4261 2.0218 2.9108 0
M  V30 9 C  1.0126 1.9622 4.2403 0
M  V30 10 C  -0.2459 1.4755 4.5624 0
M  V30 11 C  -1.0935 1.0594 3.5406 0
M  V30 12 C  -0.6732 1.1243 2.2199 0
M  V30 13 C  -0.0751 4.1902 0.5782 0
M  V30 14 C  -0.9067 5.2822 0.3757 0
M  V30 15 C  -1.8261 5.2755 -0.6684 0
M  V30 16 C  -1.8887 4.1814 -1.5212 0
M  V30 17 C  -1.0261 3.1047 -1.3437 0
M  V30 18 C  3.7077 1.4054 0.8018 0
M  V30 19 C  5.0486 1.7723 0.7978 0
M  V30 20 C  5.4578 2.9115 0.1163 0
M  V30 21 C  4.5208 3.6750 -0.5723 0
M  V30 22 C  3.1856 3.2955 -0.5892 0
M  V30 23 C  1.2488 -1.2657 0.5477 0
M  V30 24 C  2.4495 -0.6085 -2.1723 0
M  V30 25 H  -0.4329 -0.2540 -0.3095 0
M  V30 26 H  0.3450 -0.3555 -2.4945 0
M  V30 27 H  2.4076 2.4209 2.6963 0
M  V30 28 H  1.6801 2.3024 5.0230 0
M  V30 29 H  -0.5680 1.4270 5.5949 0
M  V30 30 H  -2.0849 0.6899 3.7730 0
M  V30 31 H  -1.3669 0.8173 1.4452 0
M  V30 32 H  0.6108 4.1970 1.4142 0
M  V30 33 H  -0.8449 6.1340 1.0413 0
M  V30 34 H  -2.4871 6.1205 -0.8164 0
M  V30 35 H  -2.5988 4.1689 -2.3387 0
M  V30 36 H  -1.0396 2.2796 -2.0397 0
M  V30 37 H  3.4010 0.5306 1.3582 0
M  V30 38 H  5.7706 1.1698 1.3347 0
M  V30 39 H  6.5007 3.2024 0.1195 0
M  V30 40 H  4.8322 4.5623 -1.1093 0
M  V30 41 H  2.4689 3.8733 -1.1571 0
M  V30 42 H  0.9208 -2.2474 0.1963 0
M  V30 43 H  0.9215 -1.1562 1.5815 0
M  V30 44 H  2.3378 -1.2604 0.5308 0
M  V30 45 H  2.4084 -1.7004 -2.1482 0
M  V30 46 H  3.2426 -0.2709 -1.5049 0
M  V30 47 H  2.7093 -0.2949 -3.1841 0
M  V30 END ATOM
M  V30 BEGIN BOND
M  V30 1 1 1 25
M  V30 2 1 1 23
M  V30 3 1 1 2
M  V30 4 1 1 4
M  V30 5 1 2 26
M  V30 6 1 2 3
M  V30 7 1 2 24
M  V30 8 1 3 4
M  V30 9 1 4 5
M  V30 10 1 4 7
M  V30 11 1 4 6
M  V30 12 2 5 18
M  V30 13 1 5 22
M  V30 14 2 6 8
M  V30 15 1 6 12
M  V30 16 2 7 17
M  V30 17 1 7 13
M  V30 18 1 8 27
M  V30 19 1 8 9
M  V30 20 1 9 28
M  V30 21 2 9 10
M  V30 22 1 10 29
M  V30 23 1 10 11
M  V30 24 1 11 30
M  V30 25 2 11 12
M  V30 26 1 12 31
M  V30 27 1 13 32
M  V30 28 2 13 14
M  V30 29 1 14 33
M  V30 30 1 14 15
M  V30 31 1 15 34
M  V30 32 2 15 16
M  V30 33 1 16 35
M  V30 34 1 16 17
M  V30 35 1 17 36
M  V30 36 1 18 37
M  V30 37 1 18 19
M  V30 38 1 19 38
M  V30 39 2 19 20
M  V30 40 1 20 39
M  V30 41 1 20 21
M  V30 42 1 21 40
M  V30 43 2 21 22
M  V30 44 1 22 41
M  V30 45 1 23 44
M  V30 46 1 23 43
M  V30 47 1 23 42
M  V30 48 1 24 46
M  V30 49 1 24 47
M  V30 50 1 24 45
M  V30 END BOND
M  V30 END CTAB
M  END
> <s_m_entry_id>
29

> <s_m_entry_name>
Jaguar edited structure

$$$$
OPA0_HD_no_solv_partial_op
                    3D
 Schrodinger Suite 2024-1.
  0  0  0     0  0            999 V3000
M  V30 BEGIN CTAB
M  V30 COUNTS 47 50 0 0 0
M  V30 BEGIN ATOM
M  V30 1 C  -0.4720 -0.1632 -0.1234 0 CFG=2
M  V30 2 C  -0.6741 -0.0298 -1.6338 0 CFG=2
M  V30 3 O  -1.5292 1.1035 -1.6077 0
M  V30 4 P  -1.1016 1.6024 0.0793 0
M  V30 5 C  -2.8322 2.2190 0.3172 0
M  V30 6 C  -0.7147 1.7353 1.9584 0
M  V30 7 C  0.0189 2.9140 -0.5367 0
M  V30 8 C  -1.3047 0.7714 2.7858 0
M  V30 9 C  -1.1159 0.7730 4.1605 0
M  V30 10 C  -0.3270 1.7537 4.7536 0
M  V30 11 C  0.2562 2.7274 3.9558 0
M  V30 12 C  0.0617 2.7169 2.5760 0
M  V30 13 C  -0.5101 3.9410 -1.3202 0
M  V30 14 C  0.3184 4.9218 -1.8468 0
M  V30 15 C  1.6910 4.8737 -1.6236 0
M  V30 16 C  2.2274 3.8442 -0.8617 0
M  V30 17 C  1.3946 2.8751 -0.3122 0
M  V30 18 C  -3.9182 1.5779 -0.2804 0
M  V30 19 C  -5.2134 2.0403 -0.0722 0
M  V30 20 C  -5.4370 3.1706 0.7022 0
M  V30 21 C  -4.3590 3.8308 1.2828 0
M  V30 22 C  -3.0703 3.3470 1.1088 0
M  V30 23 C  0.8687 -0.6147 0.4253 0
M  V30 24 C  -1.3140 -1.2082 -2.3432 0
M  V30 25 H  -1.2704 -0.7932 0.2812 0
M  V30 26 H  0.2842 0.2111 -2.1207 0
M  V30 27 H  -1.9434 0.0082 2.3548 0
M  V30 28 H  -1.5881 0.0125 4.7706 0
M  V30 29 H  -0.1760 1.7600 5.8257 0
M  V30 30 H  0.8640 3.5042 4.4040 0
M  V30 31 H  0.5197 3.4984 1.9857 0
M  V30 32 H  -1.5716 3.9645 -1.5272 0
M  V30 33 H  -0.1071 5.7190 -2.4434 0
M  V30 34 H  2.3376 5.6336 -2.0438 0
M  V30 35 H  3.2946 3.7961 -0.6852 0
M  V30 36 H  1.8239 2.0993 0.3059 0
M  V30 37 H  -3.7421 0.7301 -0.9244 0
M  V30 38 H  -6.0461 1.5217 -0.5305 0
M  V30 39 H  -6.4443 3.5383 0.8520 0
M  V30 40 H  -4.5221 4.7173 1.8825 0
M  V30 41 H  -2.2470 3.8536 1.5934 0
M  V30 42 H  1.0189 -1.6771 0.2161 0
M  V30 43 H  1.6925 -0.0713 -0.0387 0
M  V30 44 H  0.9276 -0.4771 1.5050 0
M  V30 45 H  -0.6586 -2.0825 -2.3130 0
M  V30 46 H  -2.2632 -1.4660 -1.8678 0
M  V30 47 H  -1.5104 -0.9621 -3.3878 0
M  V30 END ATOM
M  V30 BEGIN BOND
M  V30 1 1 1 25
M  V30 2 1 1 23
M  V30 3 1 1 2
M  V30 4 1 1 4
M  V30 5 1 2 26
M  V30 6 1 2 3
M  V30 7 1 2 24
M  V30 8 1 3 4
M  V30 9 1 4 7
M  V30 10 1 4 5
M  V30 11 1 4 6
M  V30 12 2 5 18
M  V30 13 1 5 22
M  V30 14 2 6 12
M  V30 15 1 6 8
M  V30 16 2 7 17
M  V30 17 1 7 13
M  V30 18 1 8 27
M  V30 19 2 8 9
M  V30 20 1 9 28
M  V30 21 1 9 10
M  V30 22 1 10 29
M  V30 23 2 10 11
M  V30 24 1 11 30
M  V30 25 1 11 12
M  V30 26 1 12 31
M  V30 27 1 13 32
M  V30 28 2 13 14
M  V30 29 1 14 33
M  V30 30 1 14 15
M  V30 31 1 15 34
M  V30 32 2 15 16
M  V30 33 1 16 35
M  V30 34 1 16 17
M  V30 35 1 17 36
M  V30 36 1 18 37
M  V30 37 1 18 19
M  V30 38 1 19 38
M  V30 39 2 19 20
M  V30 40 1 20 39
M  V30 41 1 20 21
M  V30 42 1 21 40
M  V30 43 2 21 22
M  V30 44 1 22 41
M  V30 45 1 23 44
M  V30 46 1 23 43
M  V30 47 1 23 42
M  V30 48 1 24 47
M  V30 49 1 24 46
M  V30 50 1 24 45
M  V30 END BOND
M  V30 END CTAB
M  END
> <s_m_entry_id>
9

> <s_m_entry_name>
Jaguar edited structure

$$$$
en-OPA0_HD_no_solv2
                    3D
 Schrodinger Suite 2024-1.
  0  0  0     0  0            999 V3000
M  V30 BEGIN CTAB
M  V30 COUNTS 47 50 0 0 0
M  V30 BEGIN ATOM
M  V30 1 C  0.4715 -0.1623 -0.1251 0 CFG=1
M  V30 2 C  0.6747 -0.0277 -1.6352 0 CFG=1
M  V30 3 O  1.5307 1.1047 -1.6073 0
M  V30 4 P  1.1020 1.6028 0.0795 0
M  V30 5 C  2.8319 2.2198 0.3183 0
M  V30 6 C  0.7153 1.7342 1.9589 0
M  V30 7 C  -0.0188 2.9138 -0.5366 0
M  V30 8 C  1.3047 0.7689 2.7846 0
M  V30 9 C  1.1171 0.7691 4.1596 0
M  V30 10 C  0.3298 1.7500 4.7545 0
M  V30 11 C  -0.2527 2.7254 3.9582 0
M  V30 12 C  -0.0593 2.7161 2.5782 0
M  V30 13 C  0.5088 3.9365 -1.3265 0
M  V30 14 C  -0.3200 4.9168 -1.8535 0
M  V30 15 C  -1.6918 4.8723 -1.6242 0
M  V30 16 C  -2.2271 3.8468 -0.8560 0
M  V30 17 C  -1.3937 2.8781 -0.3064 0
M  V30 18 C  3.9187 1.5741 -0.2714 0
M  V30 19 C  5.2137 2.0367 -0.0621 0
M  V30 20 C  5.4355 3.1725 0.7054 0
M  V30 21 C  4.3555 3.8373 1.2775 0
M  V30 22 C  3.0673 3.3527 1.1023 0
M  V30 23 C  -0.8702 -0.6127 0.4219 0
M  V30 24 C  1.3141 -1.2058 -2.3455 0
M  V30 25 H  1.2692 -0.7934 0.2792 0
M  V30 26 H  -0.2830 0.2149 -2.1225 0
M  V30 27 H  1.9420 0.0054 2.3524 0
M  V30 28 H  1.5889 0.0073 4.7684 0
M  V30 29 H  0.1796 1.7553 5.8269 0
M  V30 30 H  -0.8592 3.5026 4.4078 0
M  V30 31 H  -0.5167 3.4990 1.9893 0
M  V30 32 H  1.5693 3.9568 -1.5385 0
M  V30 33 H  0.1044 5.7107 -2.4552 0
M  V30 34 H  -2.3387 5.6319 -2.0445 0
M  V30 35 H  -3.2937 3.8014 -0.6747 0
M  V30 36 H  -1.8218 2.1051 0.3162 0
M  V30 37 H  3.7443 0.7220 -0.9103 0
M  V30 38 H  6.0478 1.5144 -0.5139 0
M  V30 39 H  6.4427 3.5407 0.8562 0
M  V30 40 H  4.5170 4.7282 1.8714 0
M  V30 41 H  2.2428 3.8630 1.5804 0
M  V30 42 H  -1.0219 -1.6745 0.2107 0
M  V30 43 H  -1.6927 -0.0670 -0.0418 0
M  V30 44 H  -0.9297 -0.4769 1.5019 0
M  V30 45 H  0.6578 -2.0795 -2.3167 0
M  V30 46 H  2.2627 -1.4649 -1.8696 0
M  V30 47 H  1.5114 -0.9588 -3.3897 0
M  V30 END ATOM
M  V30 BEGIN BOND
M  V30 1 1 1 25
M  V30 2 1 1 23
M  V30 3 1 1 2
M  V30 4 1 1 4
M  V30 5 1 2 26
M  V30 6 1 2 3
M  V30 7 1 2 24
M  V30 8 1 3 4
M  V30 9 1 4 7
M  V30 10 1 4 5
M  V30 11 1 4 6
M  V30 12 2 5 18
M  V30 13 1 5 22
M  V30 14 2 6 12
M  V30 15 1 6 8
M  V30 16 2 7 17
M  V30 17 1 7 13
M  V30 18 1 8 27
M  V30 19 2 8 9
M  V30 20 1 9 28
M  V30 21 1 9 10
M  V30 22 1 10 29
M  V30 23 2 10 11
M  V30 24 1 11 30
M  V30 25 1 11 12
M  V30 26 1 12 31
M  V30 27 1 13 32
M  V30 28 2 13 14
M  V30 29 1 14 33
M  V30 30 1 14 15
M  V30 31 1 15 34
M  V30 32 2 15 16
M  V30 33 1 16 35
M  V30 34 1 16 17
M  V30 35 1 17 36
M  V30 36 1 18 37
M  V30 37 1 18 19
M  V30 38 1 19 38
M  V30 39 2 19 20
M  V30 40 1 20 39
M  V30 41 1 20 21
M  V30 42 1 21 40
M  V30 43 2 21 22
M  V30 44 1 22 41
M  V30 45 1 23 44
M  V30 46 1 23 43
M  V30 47 1 23 42
M  V30 48 1 24 47
M  V30 49 1 24 46
M  V30 50 1 24 45
M  V30 END BOND
M  V30 END CTAB
M  END
> <s_m_entry_id>
27

> <s_m_entry_name>
Jaguar edited structure

$$$$